BEGIN Options
  SAVE_FLOWS h6.cbb
END Options

BEGIN GRIDDATA
  Icelltype LAYERED
    CONSTANT 1
    CONSTANT 0
    CONSTANT 0
  K  LAYERED
    CONSTANT 10.0
    CONSTANT 10.0
    CONSTANT 10.0
  K33  LAYERED
    CONSTANT 1.0
    CONSTANT 1.0
    CONSTANT 1.0
END GRIDDATA
