BEGIN Options
  READASARRAYS
  SAVE_FLOWS
END Options

BEGIN PERIOD 1
  RECHARGE
    OPEN/CLOSE h.rech.ref
END PERIOD
