BEGIN Options
END Options

BEGIN TIMING
  TDIS6  h6.tdis
END TIMING

BEGIN MODELS
  GWF6  h6.nam  h6
END MODELS

BEGIN EXCHANGES
END EXCHANGES

BEGIN SOLUTIONGROUP 1
  MXITER  1
  IMS6  h6.ims  h
END SOLUTIONGROUP
